<?xml version="1.0" encoding="UTF-8"?>

<!-- generated on 2023-04-03 15:58:01 by Eclipse SUMO netedit Version 1.16.0
<configuration xmlns:xsi="http://www.w3.org/2001/XMLSchema-instance" xsi:noNamespaceSchemaLocation="http://sumo.dlr.de/xsd/netconvertConfiguration.xsd">

    <input>
        <sumo-net-file value="simpleNet.net.xml"/>
    </input>

    <output>
        <output-file value="simpleNet.net.xml"/>
    </output>

    <processing>
        <geometry.min-radius.fix.railways value="false"/>
        <geometry.max-grade.fix value="false"/>
        <offset.disable-normalization value="true"/>
        <lefthand value="0"/>
    </processing>

    <junctions>
        <no-turnarounds value="true"/>
        <junctions.corner-detail value="5"/>
        <junctions.limit-turn-speed value="5.50"/>
        <rectangular-lane-cut value="0"/>
    </junctions>

    <pedestrian>
        <walkingareas value="0"/>
    </pedestrian>

</configuration>
-->

<net version="1.16" junctionCornerDetail="5" limitTurnSpeed="5.50" xmlns:xsi="http://www.w3.org/2001/XMLSchema-instance" xsi:noNamespaceSchemaLocation="http://sumo.dlr.de/xsd/net_file.xsd">

    <location netOffset="500.00,500.00" convBoundary="0.00,0.00,1000.00,1000.00" origBoundary="-500.00,-500.00,500.00,500.00" projParameter="!"/>

    <edge id=":N0_0" function="internal">
        <lane id=":N0_0_0" index="0" speed="13.89" length="30.40" shape="490.40,515.20 490.40,484.80"/>
        <lane id=":N0_0_1" index="1" speed="13.89" length="30.40" shape="493.60,515.20 493.60,484.80"/>
        <lane id=":N0_0_2" index="2" speed="13.89" length="30.40" shape="496.80,515.20 496.80,484.80"/>
    </edge>
    <edge id=":N0_3" function="internal">
        <lane id=":N0_3_0" index="0" speed="10.88" length="6.03" shape="500.00,515.20 500.71,509.22"/>
    </edge>
    <edge id=":N0_16" function="internal">
        <lane id=":N0_16_0" index="0" speed="10.88" length="21.12" shape="500.71,509.22 500.95,507.15 503.80,501.40 508.55,497.95 515.20,496.80"/>
    </edge>
    <edge id=":N0_4" function="internal">
        <lane id=":N0_4_0" index="0" speed="13.89" length="30.40" shape="515.20,509.60 484.80,509.60"/>
        <lane id=":N0_4_1" index="1" speed="13.89" length="30.40" shape="515.20,506.40 484.80,506.40"/>
        <lane id=":N0_4_2" index="2" speed="13.89" length="30.40" shape="515.20,503.20 484.80,503.20"/>
    </edge>
    <edge id=":N0_7" function="internal">
        <lane id=":N0_7_0" index="0" speed="10.88" length="6.03" shape="515.20,500.00 509.22,499.29"/>
    </edge>
    <edge id=":N0_17" function="internal">
        <lane id=":N0_17_0" index="0" speed="10.88" length="21.12" shape="509.22,499.29 507.15,499.05 501.40,496.20 497.95,491.45 496.80,484.80"/>
    </edge>
    <edge id=":N0_8" function="internal">
        <lane id=":N0_8_0" index="0" speed="13.89" length="30.40" shape="509.60,484.80 509.60,515.20"/>
        <lane id=":N0_8_1" index="1" speed="13.89" length="30.40" shape="506.40,484.80 506.40,515.20"/>
        <lane id=":N0_8_2" index="2" speed="13.89" length="30.40" shape="503.20,484.80 503.20,515.20"/>
    </edge>
    <edge id=":N0_11" function="internal">
        <lane id=":N0_11_0" index="0" speed="10.88" length="6.03" shape="500.00,484.80 499.29,490.78"/>
    </edge>
    <edge id=":N0_18" function="internal">
        <lane id=":N0_18_0" index="0" speed="10.88" length="21.12" shape="499.29,490.78 499.05,492.85 496.20,498.60 491.45,502.05 484.80,503.20"/>
    </edge>
    <edge id=":N0_12" function="internal">
        <lane id=":N0_12_0" index="0" speed="13.89" length="30.40" shape="484.80,490.40 515.20,490.40"/>
        <lane id=":N0_12_1" index="1" speed="13.89" length="30.40" shape="484.80,493.60 515.20,493.60"/>
        <lane id=":N0_12_2" index="2" speed="13.89" length="30.40" shape="484.80,496.80 515.20,496.80"/>
    </edge>
    <edge id=":N0_15" function="internal">
        <lane id=":N0_15_0" index="0" speed="10.88" length="6.03" shape="484.80,500.00 490.78,500.71"/>
    </edge>
    <edge id=":N0_19" function="internal">
        <lane id=":N0_19_0" index="0" speed="10.88" length="21.12" shape="490.78,500.71 492.85,500.95 498.60,503.80 502.05,508.55 503.20,515.20"/>
    </edge>
    <edge id=":N1_0" function="internal">
        <lane id=":N1_0_0" index="0" speed="3.65" length="4.67" shape="503.20,1000.00 502.40,1001.20 501.60,1001.60 500.80,1001.20 500.00,1000.00"/>
    </edge>
    <edge id=":N2_0" function="internal">
        <lane id=":N2_0_0" index="0" speed="3.65" length="4.67" shape="1000.00,496.80 1001.20,497.60 1001.60,498.40 1001.20,499.20 1000.00,500.00"/>
    </edge>
    <edge id=":N3_0" function="internal">
        <lane id=":N3_0_0" index="0" speed="3.65" length="4.67" shape="496.80,0.00 497.60,-1.20 498.40,-1.60 499.20,-1.20 500.00,0.00"/>
    </edge>
    <edge id=":N4_0" function="internal">
        <lane id=":N4_0_0" index="0" speed="3.65" length="4.67" shape="0.00,503.20 -1.20,502.40 -1.60,501.60 -1.20,500.80 0.00,500.00"/>
    </edge>

    <edge id="E01" from="N0" to="N1" priority="-1" spreadType="roadCenter">
        <lane id="E01_0" index="0" speed="13.89" length="484.80" shape="509.60,515.20 509.60,1000.00"/>
        <lane id="E01_1" index="1" speed="13.89" length="484.80" shape="506.40,515.20 506.40,1000.00"/>
        <lane id="E01_2" index="2" speed="13.89" length="484.80" shape="503.20,515.20 503.20,1000.00"/>
    </edge>
    <edge id="E02" from="N0" to="N2" priority="-1" spreadType="roadCenter">
        <lane id="E02_0" index="0" speed="13.89" length="484.80" shape="515.20,490.40 1000.00,490.40"/>
        <lane id="E02_1" index="1" speed="13.89" length="484.80" shape="515.20,493.60 1000.00,493.60"/>
        <lane id="E02_2" index="2" speed="13.89" length="484.80" shape="515.20,496.80 1000.00,496.80"/>
    </edge>
    <edge id="E03" from="N0" to="N3" priority="-1" spreadType="roadCenter">
        <lane id="E03_0" index="0" speed="13.89" length="484.80" shape="490.40,484.80 490.40,0.00"/>
        <lane id="E03_1" index="1" speed="13.89" length="484.80" shape="493.60,484.80 493.60,0.00"/>
        <lane id="E03_2" index="2" speed="13.89" length="484.80" shape="496.80,484.80 496.80,0.00"/>
    </edge>
    <edge id="E04" from="N0" to="N4" priority="-1" spreadType="roadCenter">
        <lane id="E04_0" index="0" speed="13.89" length="484.80" shape="484.80,509.60 0.00,509.60"/>
        <lane id="E04_1" index="1" speed="13.89" length="484.80" shape="484.80,506.40 0.00,506.40"/>
        <lane id="E04_2" index="2" speed="13.89" length="484.80" shape="484.80,503.20 0.00,503.20"/>
    </edge>
    <edge id="E10" from="N1" to="N0" priority="-1" spreadType="roadCenter">
        <lane id="E10_0" index="0" speed="13.89" length="484.80" shape="490.40,1000.00 490.40,515.20"/>
        <lane id="E10_1" index="1" speed="13.89" length="484.80" shape="493.60,1000.00 493.60,515.20"/>
        <lane id="E10_2" index="2" speed="13.89" length="484.80" shape="496.80,1000.00 496.80,515.20"/>
        <lane id="E10_3" index="3" speed="13.89" length="484.80" shape="500.00,1000.00 500.00,515.20"/>
    </edge>
    <edge id="E20" from="N2" to="N0" priority="-1" spreadType="roadCenter">
        <lane id="E20_0" index="0" speed="13.89" length="484.80" shape="1000.00,509.60 515.20,509.60"/>
        <lane id="E20_1" index="1" speed="13.89" length="484.80" shape="1000.00,506.40 515.20,506.40"/>
        <lane id="E20_2" index="2" speed="13.89" length="484.80" shape="1000.00,503.20 515.20,503.20"/>
        <lane id="E20_3" index="3" speed="13.89" length="484.80" shape="1000.00,500.00 515.20,500.00"/>
    </edge>
    <edge id="E30" from="N3" to="N0" priority="-1" spreadType="roadCenter">
        <lane id="E30_0" index="0" speed="13.89" length="484.80" shape="509.60,0.00 509.60,484.80"/>
        <lane id="E30_1" index="1" speed="13.89" length="484.80" shape="506.40,0.00 506.40,484.80"/>
        <lane id="E30_2" index="2" speed="13.89" length="484.80" shape="503.20,0.00 503.20,484.80"/>
        <lane id="E30_3" index="3" speed="13.89" length="484.80" shape="500.00,0.00 500.00,484.80"/>
    </edge>
    <edge id="E40" from="N4" to="N0" priority="-1" spreadType="roadCenter">
        <lane id="E40_0" index="0" speed="13.89" length="484.80" shape="0.00,490.40 484.80,490.40"/>
        <lane id="E40_1" index="1" speed="13.89" length="484.80" shape="0.00,493.60 484.80,493.60"/>
        <lane id="E40_2" index="2" speed="13.89" length="484.80" shape="0.00,496.80 484.80,496.80"/>
        <lane id="E40_3" index="3" speed="13.89" length="484.80" shape="0.00,500.00 484.80,500.00"/>
    </edge>

    <tlLogic id="N0" type="static" programID="0" offset="0">
        <phase duration="48" state="GGGrrrrrrrGGGrrrrrrr"/>
        <phase duration="3" state="rrrrrrrrrrrrrrrrrrrr"/>
        <phase duration="22"  state="rrrGGrrrrrrrrGGrrrrr"/>
        <phase duration="3" state="rrrrrrrrrrrrrrrrrrrr"/>
        <phase duration="47" state="rrrrrGGGrrrrrrrGGGrr"/>
        <phase duration="3" state="rrrrrrrrrrrrrrrrrrrr"/>
        <phase duration="21"  state="rrrrrrrrGGrrrrrrrrGG"/>
        <phase duration="3" state="rrrrrrrrrrrrrrrrrrrr"/>
    </tlLogic>

    <junction id="N0" type="traffic_light" x="500.00" y="500.00" incLanes="E10_0 E10_1 E10_2 E10_3 E20_0 E20_1 E20_2 E20_3 E30_0 E30_1 E30_2 E30_3 E40_0 E40_1 E40_2 E40_3" intLanes=":N0_0_0 :N0_0_1 :N0_0_2 :N0_16_0 :N0_4_0 :N0_4_1 :N0_4_2 :N0_17_0 :N0_8_0 :N0_8_1 :N0_8_2 :N0_18_0 :N0_12_0 :N0_12_1 :N0_12_2 :N0_19_0" shape="488.80,515.20 511.20,515.20 511.64,512.98 512.20,512.20 512.98,511.64 513.98,511.31 515.20,511.20 515.20,488.80 512.98,488.36 512.20,487.80 511.64,487.02 511.31,486.02 511.20,484.80 488.80,484.80 488.36,487.02 487.80,487.80 487.02,488.36 486.02,488.69 484.80,488.80 484.80,511.20 487.02,511.64 487.80,512.20 488.36,512.98 488.69,513.98">
        <request index="0"  response="1000000010000000" foes="1111100011110000" cont="0"/>
        <request index="1"  response="1000000010000000" foes="1111100011110000" cont="0"/>
        <request index="2"  response="1000000010000000" foes="1111100011110000" cont="0"/>
        <request index="3"  response="1000011110000000" foes="1111011111110000" cont="1"/>
        <request index="4"  response="0000111100001111" foes="1000111100001111" cont="0"/>
        <request index="5"  response="0000111100001111" foes="1000111100001111" cont="0"/>
        <request index="6"  response="0000111100001111" foes="1000111100001111" cont="0"/>
        <request index="7"  response="0111111100001111" foes="0111111100001111" cont="1"/>
        <request index="8"  response="1000000010000000" foes="1111000011111000" cont="0"/>
        <request index="9"  response="1000000010000000" foes="1111000011111000" cont="0"/>
        <request index="10" response="1000000010000000" foes="1111000011111000" cont="0"/>
        <request index="11" response="1000000010000111" foes="1111000011110111" cont="1"/>
        <request index="12" response="0000111100001111" foes="0000111110001111" cont="0"/>
        <request index="13" response="0000111100001111" foes="0000111110001111" cont="0"/>
        <request index="14" response="0000111100001111" foes="0000111110001111" cont="0"/>
        <request index="15" response="0000111101111111" foes="0000111101111111" cont="1"/>
    </junction>
    <junction id="N1" type="priority" x="500.00" y="1000.00" incLanes="E01_0 E01_1 E01_2" intLanes=":N1_0_0" shape="501.60,1000.00 511.20,1000.00 501.60,1000.00">
        <request index="0" response="0" foes="0" cont="0"/>
    </junction>
    <junction id="N2" type="priority" x="1000.00" y="500.00" incLanes="E02_0 E02_1 E02_2" intLanes=":N2_0_0" shape="1000.00,498.40 1000.00,488.80 1000.00,498.40">
        <request index="0" response="0" foes="0" cont="0"/>
    </junction>
    <junction id="N3" type="priority" x="500.00" y="0.00" incLanes="E03_0 E03_1 E03_2" intLanes=":N3_0_0" shape="498.40,0.00 488.80,0.00 498.40,0.00">
        <request index="0" response="0" foes="0" cont="0"/>
    </junction>
    <junction id="N4" type="priority" x="0.00" y="500.00" incLanes="E04_0 E04_1 E04_2" intLanes=":N4_0_0" shape="0.00,501.60 0.00,511.20 0.00,501.60">
        <request index="0" response="0" foes="0" cont="0"/>
    </junction>

    <junction id=":N0_16_0" type="internal" x="500.71" y="509.22" incLanes=":N0_3_0 E30_0 E30_1 E30_2" intLanes=":N0_4_0 :N0_4_1 :N0_4_2 :N0_7_0 :N0_8_0 :N0_8_1 :N0_8_2 :N0_12_0 :N0_12_1 :N0_12_2 :N0_15_0"/>
    <junction id=":N0_17_0" type="internal" x="509.22" y="499.29" incLanes=":N0_7_0 E40_0 E40_1 E40_2" intLanes=":N0_0_0 :N0_0_1 :N0_0_2 :N0_3_0 :N0_8_0 :N0_8_1 :N0_8_2 :N0_11_0 :N0_12_0 :N0_12_1 :N0_12_2"/>
    <junction id=":N0_18_0" type="internal" x="499.29" y="490.78" incLanes=":N0_11_0 E10_0 E10_1 E10_2" intLanes=":N0_0_0 :N0_0_1 :N0_0_2 :N0_4_0 :N0_4_1 :N0_4_2 :N0_7_0 :N0_12_0 :N0_12_1 :N0_12_2 :N0_15_0"/>
    <junction id=":N0_19_0" type="internal" x="490.78" y="500.71" incLanes=":N0_15_0 E20_0 E20_1 E20_2" intLanes=":N0_0_0 :N0_0_1 :N0_0_2 :N0_3_0 :N0_4_0 :N0_4_1 :N0_4_2 :N0_8_0 :N0_8_1 :N0_8_2 :N0_11_0"/>

    <connection from="E01" to="E10" fromLane="2" toLane="3" via=":N1_0_0" dir="t" state="M"/>
    <connection from="E02" to="E20" fromLane="2" toLane="3" via=":N2_0_0" dir="t" state="M"/>
    <connection from="E03" to="E30" fromLane="2" toLane="3" via=":N3_0_0" dir="t" state="M"/>
    <connection from="E04" to="E40" fromLane="2" toLane="3" via=":N4_0_0" dir="t" state="M"/>
    <connection from="E10" to="E03" fromLane="0" toLane="0" via=":N0_0_0" tl="N0" linkIndex="0" dir="s" state="O"/>
    <connection from="E10" to="E03" fromLane="1" toLane="1" via=":N0_0_1" tl="N0" linkIndex="1" dir="s" state="O"/>
    <connection from="E10" to="E03" fromLane="2" toLane="2" via=":N0_0_2" tl="N0" linkIndex="2" dir="s" state="O"/>
    <connection from="E10" to="E02" fromLane="3" toLane="2" via=":N0_3_0" tl="N0" linkIndex="4" dir="l" state="o"/>
    <connection from="E20" to="E04" fromLane="0" toLane="0" via=":N0_4_0" tl="N0" linkIndex="5" dir="s" state="o"/>
    <connection from="E20" to="E04" fromLane="1" toLane="1" via=":N0_4_1" tl="N0" linkIndex="6" dir="s" state="o"/>
    <connection from="E20" to="E04" fromLane="2" toLane="2" via=":N0_4_2" tl="N0" linkIndex="7" dir="s" state="o"/>
    <connection from="E20" to="E03" fromLane="3" toLane="2" via=":N0_7_0" tl="N0" linkIndex="9" dir="l" state="o"/>
    <connection from="E30" to="E01" fromLane="0" toLane="0" via=":N0_8_0" tl="N0" linkIndex="10" dir="s" state="O"/>
    <connection from="E30" to="E01" fromLane="1" toLane="1" via=":N0_8_1" tl="N0" linkIndex="11" dir="s" state="O"/>
    <connection from="E30" to="E01" fromLane="2" toLane="2" via=":N0_8_2" tl="N0" linkIndex="12" dir="s" state="O"/>
    <connection from="E30" to="E04" fromLane="3" toLane="2" via=":N0_11_0" tl="N0" linkIndex="14" dir="l" state="o"/>
    <connection from="E40" to="E02" fromLane="0" toLane="0" via=":N0_12_0" tl="N0" linkIndex="15" dir="s" state="o"/>
    <connection from="E40" to="E02" fromLane="1" toLane="1" via=":N0_12_1" tl="N0" linkIndex="16" dir="s" state="o"/>
    <connection from="E40" to="E02" fromLane="2" toLane="2" via=":N0_12_2" tl="N0" linkIndex="17" dir="s" state="o"/>
    <connection from="E40" to="E01" fromLane="3" toLane="2" via=":N0_15_0" tl="N0" linkIndex="19" dir="l" state="o"/>

    <connection from=":N0_0" to="E03" fromLane="0" toLane="0" dir="s" state="M"/>
    <connection from=":N0_0" to="E03" fromLane="1" toLane="1" dir="s" state="M"/>
    <connection from=":N0_0" to="E03" fromLane="2" toLane="2" dir="s" state="M"/>
    <connection from=":N0_3" to="E02" fromLane="0" toLane="2" via=":N0_16_0" dir="l" state="m"/>
    <connection from=":N0_16" to="E02" fromLane="0" toLane="2" dir="l" state="M"/>
    <connection from=":N0_4" to="E04" fromLane="0" toLane="0" dir="s" state="M"/>
    <connection from=":N0_4" to="E04" fromLane="1" toLane="1" dir="s" state="M"/>
    <connection from=":N0_4" to="E04" fromLane="2" toLane="2" dir="s" state="M"/>
    <connection from=":N0_7" to="E03" fromLane="0" toLane="2" via=":N0_17_0" dir="l" state="m"/>
    <connection from=":N0_17" to="E03" fromLane="0" toLane="2" dir="l" state="M"/>
    <connection from=":N0_8" to="E01" fromLane="0" toLane="0" dir="s" state="M"/>
    <connection from=":N0_8" to="E01" fromLane="1" toLane="1" dir="s" state="M"/>
    <connection from=":N0_8" to="E01" fromLane="2" toLane="2" dir="s" state="M"/>
    <connection from=":N0_11" to="E04" fromLane="0" toLane="2" via=":N0_18_0" dir="l" state="m"/>
    <connection from=":N0_18" to="E04" fromLane="0" toLane="2" dir="l" state="M"/>
    <connection from=":N0_12" to="E02" fromLane="0" toLane="0" dir="s" state="M"/>
    <connection from=":N0_12" to="E02" fromLane="1" toLane="1" dir="s" state="M"/>
    <connection from=":N0_12" to="E02" fromLane="2" toLane="2" dir="s" state="M"/>
    <connection from=":N0_15" to="E01" fromLane="0" toLane="2" via=":N0_19_0" dir="l" state="m"/>
    <connection from=":N0_19" to="E01" fromLane="0" toLane="2" dir="l" state="M"/>
    <connection from=":N1_0" to="E10" fromLane="0" toLane="3" dir="t" state="M"/>
    <connection from=":N2_0" to="E20" fromLane="0" toLane="3" dir="t" state="M"/>
    <connection from=":N3_0" to="E30" fromLane="0" toLane="3" dir="t" state="M"/>
    <connection from=":N4_0" to="E40" fromLane="0" toLane="3" dir="t" state="M"/>

</net>
