<nodes>
    <node id="N0" x="0.0" y="0.0" type="traffic_light"/>
    
    <node id="N1" x="0.0" y="500.0" type="priority"/>
    <node id="N2" x="500.0" y="0.0" type="priority"/>
    <node id="N3" x="0.0" y="-500.0" type="priority"/>
    <node id="N4" x="-500.0" y="0.0" type="priority"/>
</nodes>